<?xml version="1.0" encoding="UTF-8"?>

<!-- generated on 2025-05-13 18:07:35 by Eclipse SUMO netedit Version 1.22.0
-->

<routes xmlns:xsi="http://www.w3.org/2001/XMLSchema-instance" xsi:noNamespaceSchemaLocation="http://sumo.dlr.de/xsd/routes_file.xsd">
    <!-- Vehicles, persons and containers (sorted by depart) -->
    <trip id="t_0" depart="0.00" departSpeed="4.90" color="magenta" from="-2138" to="1259" via="-1962 -1257 1249 -340 334 588 -5 11 23 37 -592 -68 199 340 -1249"/>
    <trip id="t_1" depart="0.00" from="-1154" to="1154" via="-1025 -991 -219 229 -229 219 991 1025"/>
    <trip id="t_2" depart="0.00" departSpeed="4.80" color="cyan" from="-1034" to="1781" via="-1000 -854 852 -865 214 1777"/>
    <trip id="t_3" depart="0.00" from="-2151" to="2126" via="-1766 -1614 -1186 1178 1257 1962"/>
    <trip id="t_4" depart="0.00" color="85,0,255" from="-2151" to="2232" via="-1918 -1610 -1186 1606 1186 1610 1918 2284 -2283 -2230"/>
    <flow id="f_0" begin="0.00" from="-991" to="-190" via="-219" end="3600.00" vehsPerHour="600"/>
    <flow id="f_1" begin="0.00" color="green" from="92" to="1785" via="214 1777" end="3600.00" vehsPerHour="549.62"/>
    <flow id="f_2" begin="0.00" departSpeed="3.90" color="255,27,0" from="-1725" to="1725" via="-1492 -1209 -1154 1168 1242 1597 1739 -1777 -214 865 873 1148 1154 1209 1492" end="3600.00" vehsPerHour="549.62"/>
    <person id="p_0" depart="0.00">
        <personTrip from="-1194" to="-865"/>
    </person>
    <person id="p_1" depart="0.00" color="magenta">
        <personTrip from="-831" to="37"/>
    </person>
    <person id="p_10" depart="0.00" color="magenta">
        <personTrip from="2149" to="-2283"/>
    </person>
    <person id="p_2" depart="0.00">
        <personTrip from="-1474" to="-1148"/>
    </person>
    <person id="p_3" depart="0.00" color="magenta">
        <personTrip from="-854" to="873"/>
    </person>
    <person id="p_4" depart="0.00" color="magenta">
        <personTrip from="-1470" to="1492"/>
    </person>
    <person id="p_5" depart="0.00" color="magenta">
        <personTrip from="-1470" to="1148"/>
    </person>
    <person id="p_6" depart="0.00" color="magenta">
        <personTrip from="-1002" to="1148"/>
    </person>
    <person id="p_7" depart="0.00" color="magenta">
        <personTrip from="879" to="1168"/>
    </person>
    <person id="p_8" depart="0.00" color="magenta">
        <personTrip from="583" to="-190"/>
    </person>
    <person id="p_9" depart="0.00" color="magenta">
        <personTrip from="1992" to="1925"/>
    </person>
    <personFlow id="pf_0" begin="0.00" end="3600.00" personsPerHour="250">
        <personTrip from="-1741" to="214"/>
    </personFlow>
    <personFlow id="pf_1" begin="0.00" end="3600.00" personsPerHour="349.85">
        <personTrip from="-991" to="229"/>
    </personFlow>
</routes>
