<?xml version="1.0" encoding="UTF-8"?>

<!-- generated on 2025-05-31 15:06:19 by Eclipse SUMO netedit Version 1.22.0
-->

<routes xmlns:xsi="http://www.w3.org/2001/XMLSchema-instance" xsi:noNamespaceSchemaLocation="http://sumo.dlr.de/xsd/routes_file.xsd">
    <!-- Vehicles, persons and containers (sorted by depart) -->
    <trip id="t_0" depart="0.00" from="873" to="1777" via="1148 -1025 -991"/>
    <trip id="t_1" depart="0.00" from="60" to="-58" via="64 120 -109 31"/>
    <person id="p_0" depart="0.00">
        <personTrip from="-1194" to="-865"/>
    </person>
    <person id="p_1" depart="0.00" color="magenta">
        <personTrip from="-831" to="37"/>
    </person>
    <person id="p_11" depart="0.00">
        <personTrip from="844" to="-592"/>
    </person>
    <person id="p_13" depart="0.00">
        <personTrip from="-1722" to="-1737"/>
    </person>
    <person id="p_14" depart="0.00">
        <personTrip from="-2230" to="-1925"/>
    </person>
    <person id="p_15" depart="0.00">
        <personTrip from="-1737" to="2149"/>
    </person>
    <person id="p_19" depart="0.00">
        <personTrip from="2158" to="-1934"/>
    </person>
    <person id="p_2" depart="0.00">
        <personTrip from="-1474" to="-1148"/>
    </person>
    <person id="p_20" depart="0.00">
        <personTrip from="-2173" to="1950"/>
    </person>
    <person id="p_21" depart="0.00">
        <personTrip from="-1951" to="-1785"/>
    </person>
    <person id="p_22" depart="0.00">
        <personTrip from="-1950" to="-1915"/>
    </person>
    <person id="p_23" depart="0.00">
        <personTrip from="2173" to="1946"/>
    </person>
    <person id="p_24" depart="0.00">
        <personTrip from="-1205" to="-1597"/>
    </person>
    <person id="p_25" depart="0.00">
        <personTrip from="-1150" to="-1595"/>
    </person>
    <person id="p_26" depart="0.00">
        <personTrip from="1777" to="-1960"/>
    </person>
    <person id="p_27" depart="0.00">
        <personTrip from="-1610" to="-2230"/>
    </person>
    <person id="p_28" depart="0.00">
        <personTrip from="-199" to="-109"/>
    </person>
    <person id="p_29" depart="0.00">
        <personTrip from="31" to="148"/>
    </person>
    <person id="p_30" depart="0.00">
        <personTrip from="1980" to="-2182"/>
    </person>
    <person id="p_31" depart="0.00">
        <walk from="1597" to="-196"/>
    </person>
    <person id="p_32" depart="0.00">
        <personTrip from="-1150" to="1747"/>
    </person>
    <person id="p_4" depart="0.00" color="magenta">
        <personTrip from="-1470" to="1492"/>
    </person>
    <person id="p_5" depart="0.00" color="magenta">
        <personTrip from="-1470" to="1148"/>
    </person>
    <person id="p_7" depart="0.00" color="magenta">
        <personTrip from="879" to="1168"/>
    </person>
    <person id="p_8" depart="0.00" color="magenta">
        <personTrip from="583" to="-190"/>
    </person>
    <person id="p_9" depart="0.00" color="magenta">
        <personTrip from="1992" to="1925"/>
    </person>
    <personFlow id="pf_0" begin="0.00" end="3600.00" personsPerHour="250">
        <personTrip from="-1741" to="214"/>
    </personFlow>
    <personFlow id="pf_1" begin="0.00" end="3600.00" personsPerHour="279.94">
        <personTrip from="-991" to="229"/>
    </personFlow>
    <personFlow id="pf_2" begin="0.00" end="7200.00" personsPerHour="180">
        <personTrip from="162" to="-1940"/>
    </personFlow>
    <personFlow id="pf_3" begin="0.00" end="3600.00" personsPerHour="120">
        <personTrip from="592" to="-873"/>
    </personFlow>
    <personFlow id="pf_4" begin="0.00" end="3600.00" personsPerHour="94.99">
        <personTrip from="1194" to="214"/>
    </personFlow>
    <personFlow id="pf_5" begin="0.00" end="3600.00" personsPerHour="120">
        <personTrip from="-131" to="2243"/>
    </personFlow>
    <personFlow id="pf_6" begin="0.00" end="3600.00" personsPerHour="140.02">
        <personTrip from="-1004" to="-2192"/>
    </personFlow>
    <personFlow id="pf_7" begin="0.00" end="3600.00" personsPerHour="180">
        <personTrip from="-2182" to="1002"/>
    </personFlow>
    <personFlow id="pf_8" begin="0.00" end="3600.00" personsPerHour="900">
        <personTrip from="-865" to="-71"/>
    </personFlow>
    <person id="p_12" depart="1.00">
        <personTrip from="1722" to="-1211"/>
    </person>
    <person id="p_18" depart="1.00">
        <personTrip from="1994" to="1960"/>
    </person>
    <person id="p_16" depart="2.00">
        <personTrip from="-2128" to="1259"/>
    </person>
    <person id="p_6" depart="2.00" color="magenta">
        <personTrip from="-1002" to="1148"/>
    </person>
    <person id="p_10" depart="3.00" color="magenta">
        <personTrip from="2149" to="-2283"/>
    </person>
    <person id="p_3" depart="3.00" color="magenta">
        <personTrip from="-854" to="873"/>
    </person>
    <personFlow id="pf_16" begin="5.00" end="3600.00" personsPerHour="549.62">
        <personTrip from="55" to="-1739"/>
    </personFlow>
    <personFlow id="pf_15" begin="10.00" end="3600.00" personsPerHour="310.08">
        <personTrip from="-1178" to="-1492"/>
    </personFlow>
    <personFlow id="pf_12" begin="15.00" end="3600.00" personsPerHour="279.94">
        <personTrip from="1925" to="865"/>
    </personFlow>
    <personFlow id="pf_14" begin="25.00" end="3600.00" personsPerHour="250">
        <personTrip from="-68" to="1777"/>
    </personFlow>
    <personFlow id="pf_11" begin="30.00" end="3600.00" personsPerHour="349.85">
        <personTrip from="-58" to="162"/>
    </personFlow>
    <personFlow id="pf_9" begin="60.00" end="3600.00" personsPerHour="300">
        <personTrip from="-60" to="172"/>
    </personFlow>
    <personFlow id="pf_10" begin="80.00" number="1800" personsPerHour="450">
        <personTrip from="-190" to="43"/>
    </personFlow>
    <personFlow id="pf_13" begin="120.00" number="1800" personsPerHour="349.85">
        <personTrip from="-1194" to="3"/>
    </personFlow>
</routes>
