<?xml version="1.0" encoding="UTF-8"?>

<!-- generated on 2025-05-21 17:56:34 by Eclipse SUMO netedit Version 1.22.0
<neteditConfiguration xmlns:xsi="http://www.w3.org/2001/XMLSchema-instance" xsi:noNamespaceSchemaLocation="http://sumo.dlr.de/xsd/neteditConfiguration.xsd">

    <input>
        <sumocfg-file value="D:\tuan3\testw8.sumocfg"/>
        <route-files value="D:\tuan3\testw8.rou.xml"/>
        <sumo-net-file value="D:\tuan3\testw8.net.xml"/>
    </input>

    <output>
        <output-file value="D:\tuan3\testw8.net.xml"/>
    </output>

    <processing>
        <geometry.min-radius.fix.railways value="false"/>
        <geometry.max-grade.fix value="false"/>
        <offset.disable-normalization value="true"/>
        <lefthand value="0"/>
    </processing>

    <junctions>
        <no-internal-links value="false"/>
        <no-turnarounds value="true"/>
        <junctions.corner-detail value="5"/>
        <junctions.limit-turn-speed value="5.50"/>
        <rectangular-lane-cut value="0"/>
    </junctions>

    <pedestrian>
        <walkingareas value="0"/>
    </pedestrian>

</neteditConfiguration>
-->

<net version="1.20" junctionCornerDetail="5" limitTurnSpeed="5.50" xmlns:xsi="http://www.w3.org/2001/XMLSchema-instance" xsi:noNamespaceSchemaLocation="http://sumo.dlr.de/xsd/net_file.xsd">

    <location netOffset="1200.00,900.00" convBoundary="0.00,0.00,2000.00,2000.00" origBoundary="-1200.00,-900.00,800.00,1100.00" projParameter="!"/>

    <edge id=":1_0" function="internal">
        <lane id=":1_0_0" index="0" disallow="pedestrian" speed="6.51" length="4.75" shape="1195.20,910.40 1194.85,907.95 1193.80,906.20 1193.60,906.08"/>
    </edge>
    <edge id=":1_1" function="internal">
        <lane id=":1_1_0" index="0" disallow="pedestrian" speed="13.89" length="20.80" shape="1195.20,910.40 1195.20,889.60"/>
        <lane id=":1_1_1" index="1" disallow="pedestrian" speed="13.89" length="20.80" shape="1198.40,910.40 1198.40,889.60"/>
    </edge>
    <edge id=":1_3" function="internal">
        <lane id=":1_3_0" index="0" disallow="pedestrian" speed="9.26" length="5.01" shape="1198.40,910.40 1199.11,905.44"/>
    </edge>
    <edge id=":1_4" function="internal">
        <lane id=":1_4_0" index="0" disallow="pedestrian" speed="3.65" length="1.44" shape="1198.40,910.40 1199.20,909.20"/>
    </edge>
    <edge id=":1_20" function="internal">
        <lane id=":1_20_0" index="0" disallow="pedestrian" speed="6.51" length="4.28" shape="1193.60,906.08 1192.05,905.15 1189.60,904.80"/>
    </edge>
    <edge id=":1_21" function="internal">
        <lane id=":1_21_0" index="0" disallow="pedestrian" speed="9.26" length="14.34" shape="1199.11,905.44 1199.15,905.15 1201.40,901.40 1205.15,899.15 1210.40,898.40"/>
    </edge>
    <edge id=":1_22" function="internal">
        <lane id=":1_22_0" index="0" disallow="pedestrian" speed="3.65" length="3.23" shape="1199.20,909.20 1200.00,908.80 1200.80,909.20 1201.60,910.40"/>
    </edge>
    <edge id=":1_5" function="internal">
        <lane id=":1_5_0" index="0" disallow="pedestrian" speed="6.51" length="9.03" shape="1210.40,904.80 1207.95,905.15 1206.20,906.20 1205.15,907.95 1204.80,910.40"/>
    </edge>
    <edge id=":1_6" function="internal">
        <lane id=":1_6_0" index="0" disallow="pedestrian" speed="13.89" length="20.80" shape="1210.40,904.80 1189.60,904.80"/>
        <lane id=":1_6_1" index="1" disallow="pedestrian" speed="13.89" length="20.80" shape="1210.40,901.60 1189.60,901.60"/>
    </edge>
    <edge id=":1_8" function="internal">
        <lane id=":1_8_0" index="0" disallow="pedestrian" speed="9.26" length="19.35" shape="1210.40,901.60 1205.15,900.85 1201.40,898.60 1199.15,894.85 1198.40,889.60"/>
    </edge>
    <edge id=":1_9" function="internal">
        <lane id=":1_9_0" index="0" disallow="pedestrian" speed="3.65" length="4.67" shape="1210.40,901.60 1209.20,900.80 1208.80,900.00 1209.20,899.20 1210.40,898.40"/>
    </edge>
    <edge id=":1_10" function="internal">
        <lane id=":1_10_0" index="0" disallow="pedestrian" speed="6.51" length="4.75" shape="1204.80,889.60 1205.15,892.05 1206.20,893.80 1206.40,893.92"/>
    </edge>
    <edge id=":1_11" function="internal">
        <lane id=":1_11_0" index="0" disallow="pedestrian" speed="13.89" length="20.80" shape="1204.80,889.60 1204.80,910.40"/>
        <lane id=":1_11_1" index="1" disallow="pedestrian" speed="13.89" length="20.80" shape="1201.60,889.60 1201.60,910.40"/>
    </edge>
    <edge id=":1_13" function="internal">
        <lane id=":1_13_0" index="0" disallow="pedestrian" speed="9.26" length="5.01" shape="1201.60,889.60 1200.89,894.56"/>
    </edge>
    <edge id=":1_14" function="internal">
        <lane id=":1_14_0" index="0" disallow="pedestrian" speed="3.65" length="1.44" shape="1201.60,889.60 1200.80,890.80"/>
    </edge>
    <edge id=":1_23" function="internal">
        <lane id=":1_23_0" index="0" disallow="pedestrian" speed="6.51" length="4.28" shape="1206.40,893.92 1207.95,894.85 1210.40,895.20"/>
    </edge>
    <edge id=":1_24" function="internal">
        <lane id=":1_24_0" index="0" disallow="pedestrian" speed="9.26" length="14.34" shape="1200.89,894.56 1200.85,894.85 1198.60,898.60 1194.85,900.85 1189.60,901.60"/>
    </edge>
    <edge id=":1_25" function="internal">
        <lane id=":1_25_0" index="0" disallow="pedestrian" speed="3.65" length="3.23" shape="1200.80,890.80 1200.00,891.20 1199.20,890.80 1198.40,889.60"/>
    </edge>
    <edge id=":1_15" function="internal">
        <lane id=":1_15_0" index="0" disallow="pedestrian" speed="6.51" length="9.03" shape="1189.60,895.20 1192.05,894.85 1193.80,893.80 1194.85,892.05 1195.20,889.60"/>
    </edge>
    <edge id=":1_16" function="internal">
        <lane id=":1_16_0" index="0" disallow="pedestrian" speed="13.89" length="20.80" shape="1189.60,895.20 1210.40,895.20"/>
        <lane id=":1_16_1" index="1" disallow="pedestrian" speed="13.89" length="20.80" shape="1189.60,898.40 1210.40,898.40"/>
    </edge>
    <edge id=":1_18" function="internal">
        <lane id=":1_18_0" index="0" disallow="pedestrian" speed="9.26" length="19.35" shape="1189.60,898.40 1194.85,899.15 1198.60,901.40 1200.85,905.15 1201.60,910.40"/>
    </edge>
    <edge id=":1_19" function="internal">
        <lane id=":1_19_0" index="0" disallow="pedestrian" speed="3.65" length="4.67" shape="1189.60,898.40 1190.80,899.20 1191.20,900.00 1190.80,900.80 1189.60,901.60"/>
    </edge>
    <edge id=":1_c0" function="crossing" crossingEdges="15 -15">
        <lane id=":1_c0_0" index="0" allow="pedestrian" speed="2.78" length="12.80" width="4.00" shape="1206.40,908.40 1193.60,908.40" outlineShape="1206.50,910.40 1193.50,910.40 1193.49,909.18 1193.16,908.18 1192.60,907.40 1191.82,906.84 1191.49,906.73 1193.60,906.40 1206.40,906.40 1208.51,906.73 1208.18,906.84 1207.40,907.40 1206.84,908.18 1206.51,909.18"/>
    </edge>
    <edge id=":1_c1" function="crossing" crossingEdges="5 -5">
        <lane id=":1_c1_0" index="0" allow="pedestrian" speed="2.78" length="12.80" width="4.00" shape="1208.40,893.60 1208.40,906.40" outlineShape="1210.40,893.60 1210.40,906.40 1206.40,910.40 1208.40,910.40 1210.40,908.40 1210.40,906.40 1206.40,910.40 1206.40,889.60 1206.51,890.82 1206.84,891.82 1207.40,892.60 1208.18,893.16 1209.18,893.49"/>
    </edge>
    <edge id=":1_c2" function="crossing" crossingEdges="3 -3">
        <lane id=":1_c2_0" index="0" allow="pedestrian" speed="2.78" length="12.80" width="4.00" shape="1193.60,891.60 1206.40,891.60" outlineShape="1193.50,889.60 1206.50,889.60 1206.51,890.82 1206.84,891.82 1207.40,892.60 1208.18,893.16 1208.51,893.27 1206.40,893.60 1193.60,893.60 1191.49,893.27 1191.82,893.16 1192.60,892.60 1193.16,891.82 1193.49,890.82"/>
    </edge>
    <edge id=":1_c3" function="crossing" crossingEdges="11 -11">
        <lane id=":1_c3_0" index="0" allow="pedestrian" speed="2.78" length="12.80" width="4.00" shape="1191.60,906.40 1191.60,893.60" outlineShape="1189.60,906.40 1189.60,893.60 1193.60,889.60 1191.60,889.60 1189.60,891.60 1189.60,893.60 1193.60,889.60 1193.60,910.40 1193.49,909.18 1193.16,908.18 1192.60,907.40 1191.82,906.84 1190.82,906.51"/>
    </edge>
    <edge id=":1_w0" function="walkingarea">
        <lane id=":1_w0_0" index="0" allow="pedestrian" speed="2.78" length="3.30" width="4.00" shape="1189.60,906.40 1189.60,908.40 1191.60,910.40 1193.60,910.40 1193.49,909.18 1193.16,908.18 1192.60,907.40 1191.82,906.84 1190.82,906.51"/>
    </edge>
    <edge id=":1_w1" function="walkingarea">
        <lane id=":1_w1_0" index="0" allow="pedestrian" speed="2.78" length="3.30" width="4.00" shape="1206.40,910.40 1208.40,910.40 1210.40,908.40 1210.40,906.40 1209.18,906.51 1208.18,906.84 1207.40,907.40 1206.84,908.18 1206.51,909.18"/>
    </edge>
    <edge id=":1_w2" function="walkingarea">
        <lane id=":1_w2_0" index="0" allow="pedestrian" speed="2.78" length="3.30" width="4.00" shape="1210.40,893.60 1210.40,891.60 1208.40,889.60 1206.40,889.60 1206.51,890.82 1206.84,891.82 1207.40,892.60 1208.18,893.16 1209.18,893.49"/>
    </edge>
    <edge id=":1_w3" function="walkingarea">
        <lane id=":1_w3_0" index="0" allow="pedestrian" speed="2.78" length="3.30" width="4.00" shape="1193.60,889.60 1191.60,889.60 1189.60,891.60 1189.60,893.60 1190.82,893.49 1191.82,893.16 1192.60,892.60 1193.16,891.82 1193.49,890.82"/>
    </edge>
    <edge id=":10_0" function="internal">
        <lane id=":10_0_0" index="0" disallow="pedestrian" speed="6.51" length="9.03" shape="1095.20,910.40 1094.85,907.95 1093.80,906.20 1092.05,905.15 1089.60,904.80"/>
    </edge>
    <edge id=":10_1" function="internal">
        <lane id=":10_1_0" index="0" disallow="pedestrian" speed="9.26" length="19.35" shape="1098.40,910.40 1099.15,905.15 1101.40,901.40 1105.15,899.15 1110.40,898.40"/>
    </edge>
    <edge id=":10_2" function="internal">
        <lane id=":10_2_0" index="0" disallow="pedestrian" speed="3.65" length="4.67" shape="1098.40,910.40 1099.20,909.20 1100.00,908.80 1100.80,909.20 1101.60,910.40"/>
    </edge>
    <edge id=":10_3" function="internal">
        <lane id=":10_3_0" index="0" disallow="pedestrian" speed="6.51" length="4.75" shape="1110.40,904.80 1107.95,905.15 1106.20,906.20 1106.08,906.40"/>
    </edge>
    <edge id=":10_4" function="internal">
        <lane id=":10_4_0" index="0" disallow="pedestrian" speed="13.89" length="20.80" shape="1110.40,904.80 1089.60,904.80"/>
        <lane id=":10_4_1" index="1" disallow="pedestrian" speed="13.89" length="20.80" shape="1110.40,901.60 1089.60,901.60"/>
    </edge>
    <edge id=":10_6" function="internal">
        <lane id=":10_6_0" index="0" disallow="pedestrian" speed="3.65" length="1.44" shape="1110.40,901.60 1109.20,900.80"/>
    </edge>
    <edge id=":10_11" function="internal">
        <lane id=":10_11_0" index="0" disallow="pedestrian" speed="6.51" length="4.28" shape="1106.08,906.40 1105.15,907.95 1104.80,910.40"/>
    </edge>
    <edge id=":10_12" function="internal">
        <lane id=":10_12_0" index="0" disallow="pedestrian" speed="3.65" length="3.23" shape="1109.20,900.80 1108.80,900.00 1109.20,899.20 1110.40,898.40"/>
    </edge>
    <edge id=":10_7" function="internal">
        <lane id=":10_7_0" index="0" disallow="pedestrian" speed="13.89" length="20.80" shape="1089.60,895.20 1110.40,895.20"/>
        <lane id=":10_7_1" index="1" disallow="pedestrian" speed="13.89" length="20.80" shape="1089.60,898.40 1110.40,898.40"/>
    </edge>
    <edge id=":10_9" function="internal">
        <lane id=":10_9_0" index="0" disallow="pedestrian" speed="9.26" length="5.01" shape="1089.60,898.40 1094.56,899.11"/>
    </edge>
    <edge id=":10_10" function="internal">
        <lane id=":10_10_0" index="0" disallow="pedestrian" speed="3.65" length="1.44" shape="1089.60,898.40 1090.80,899.20"/>
    </edge>
    <edge id=":10_13" function="internal">
        <lane id=":10_13_0" index="0" disallow="pedestrian" speed="9.26" length="14.34" shape="1094.56,899.11 1094.85,899.15 1098.60,901.40 1100.85,905.15 1101.60,910.40"/>
    </edge>
    <edge id=":10_14" function="internal">
        <lane id=":10_14_0" index="0" disallow="pedestrian" speed="3.65" length="3.23" shape="1090.80,899.20 1091.20,900.00 1090.80,900.80 1089.60,901.60"/>
    </edge>
    <edge id=":10_c0" function="crossing" crossingEdges="109 -109">
        <lane id=":10_c0_0" index="0" allow="pedestrian" speed="2.78" length="12.80" width="4.00" shape="1106.40,908.40 1093.60,908.40" outlineShape="1106.50,910.40 1093.50,910.40 1093.49,909.18 1093.16,908.18 1092.60,907.40 1091.82,906.84 1091.49,906.73 1093.60,906.40 1106.40,906.40 1108.51,906.73 1108.18,906.84 1107.40,907.40 1106.84,908.18 1106.51,909.18"/>
    </edge>
    <edge id=":10_w0" function="walkingarea">
        <lane id=":10_w0_0" index="0" allow="pedestrian" speed="2.78" length="3.53" width="4.00" shape="1089.60,906.40 1089.60,908.40 1091.60,910.40 1093.60,910.40 1093.49,909.18 1093.16,908.18 1092.60,907.40 1091.82,906.84 1090.82,906.51"/>
    </edge>
    <edge id=":10_w1" function="walkingarea">
        <lane id=":10_w1_0" index="0" allow="pedestrian" speed="2.78" length="3.53" width="4.00" shape="1106.40,910.40 1108.40,910.40 1110.40,908.40 1110.40,906.40 1109.18,906.51 1108.18,906.84 1107.40,907.40 1106.84,908.18 1106.51,909.18"/>
    </edge>
    <edge id=":10_w2" function="walkingarea">
        <lane id=":10_w2_0" index="0" allow="pedestrian" speed="2.78" length="20.80" width="2.00" shape="1110.40,893.60 1110.40,891.60 1089.60,891.60 1089.60,893.60"/>
    </edge>
    <edge id=":1001_0" function="internal">
        <lane id=":1001_0_0" index="0" disallow="pedestrian" speed="9.32" length="19.62" shape="412.36,719.15 406.70,713.99 402.10,710.87 398.55,709.79 396.04,710.75"/>
    </edge>
    <edge id=":1001_1" function="internal">
        <lane id=":1001_1_0" index="0" disallow="pedestrian" speed="8.59" length="26.43" shape="414.62,716.89 410.94,710.68 411.34,704.70 415.29,700.18 422.28,698.40"/>
    </edge>
    <edge id=":1001_2" function="internal">
        <lane id=":1001_2_0" index="0" disallow="pedestrian" speed="3.65" length="4.67" shape="414.62,716.89 414.34,715.47 414.62,714.62 415.47,714.34 416.89,714.62"/>
    </edge>
    <edge id=":1001_3" function="internal">
        <lane id=":1001_3_0" index="0" disallow="pedestrian" speed="6.26" length="1.39" shape="422.28,704.80 420.90,704.96"/>
    </edge>
    <edge id=":1001_4" function="internal">
        <lane id=":1001_4_0" index="0" disallow="pedestrian" speed="13.89" length="23.34" shape="422.28,704.80 413.03,705.17 405.57,706.29 399.91,708.15 399.42,708.47"/>
        <lane id=":1001_4_1" index="1" disallow="pedestrian" speed="13.89" length="25.85" shape="422.28,701.60 412.39,702.03 404.35,703.32 398.14,705.47 397.12,706.17"/>
    </edge>
    <edge id=":1001_6" function="internal">
        <lane id=":1001_6_0" index="0" disallow="pedestrian" speed="3.65" length="1.44" shape="422.28,701.60 421.08,700.80"/>
    </edge>
    <edge id=":1001_11" function="internal">
        <lane id=":1001_11_0" index="0" disallow="pedestrian" speed="6.26" length="11.85" shape="420.90,704.96 418.07,705.27 416.15,706.69 416.51,709.05 419.15,712.36"/>
    </edge>
    <edge id=":1001_12" function="internal">
        <lane id=":1001_12_0" index="0" disallow="pedestrian" speed="13.89" length="4.08" shape="399.42,708.47 396.04,710.75"/>
        <lane id=":1001_12_1" index="0" disallow="pedestrian" speed="13.89" length="4.07" shape="397.12,706.17 393.78,708.49"/>
    </edge>
    <edge id=":1001_13" function="internal">
        <lane id=":1001_13_0" index="0" disallow="pedestrian" speed="3.65" length="3.23" shape="421.08,700.80 420.68,700.00 421.08,699.20 422.28,698.40"/>
    </edge>
    <edge id=":1001_7" function="internal">
        <lane id=":1001_7_0" index="0" disallow="pedestrian" speed="13.89" length="34.91" shape="389.25,703.96 394.60,700.13 401.89,697.39 411.11,695.75 422.28,695.20"/>
        <lane id=":1001_7_1" index="1" disallow="pedestrian" speed="13.89" length="32.41" shape="391.51,706.22 396.37,702.80 403.12,700.36 411.75,698.89 422.28,698.40"/>
    </edge>
    <edge id=":1001_9" function="internal">
        <lane id=":1001_9_0" index="0" disallow="pedestrian" speed="11.34" length="5.46" shape="391.51,706.22 396.28,703.57"/>
    </edge>
    <edge id=":1001_10" function="internal">
        <lane id=":1001_10_0" index="0" disallow="pedestrian" speed="3.65" length="1.44" shape="391.51,706.22 392.93,705.94"/>
    </edge>
    <edge id=":1001_14" function="internal">
        <lane id=":1001_14_0" index="0" disallow="pedestrian" speed="11.34" length="24.11" shape="396.28,703.57 402.10,704.08 408.97,707.77 416.89,714.62"/>
    </edge>
    <edge id=":1001_15" function="internal">
        <lane id=":1001_15_0" index="0" disallow="pedestrian" speed="3.65" length="3.23" shape="392.93,705.94 393.78,706.22 394.06,707.07 393.78,708.49"/>
    </edge>
    <edge id=":1001_c0" function="crossing" crossingEdges="-1194 1194">
        <lane id=":1001_c0_0" index="0" allow="pedestrian" speed="2.78" length="12.80" width="4.00" shape="418.87,709.81 409.81,718.87" outlineShape="420.28,711.23 411.23,720.28 408.34,717.52 417.45,708.40 418.92,707.04 418.37,707.61 418.36,708.55 418.99,709.75"/>
    </edge>
    <edge id=":1001_c1" function="crossing" crossingEdges="-1002 1002">
        <lane id=":1001_c1_0" index="0" allow="pedestrian" speed="2.78" length="12.80" width="4.00" shape="420.28,693.60 420.28,706.40" outlineShape="422.28,693.60 422.28,706.40 420.33,706.53 419.02,706.94 418.37,707.61 418.36,708.40 418.28,706.40 418.28,693.60 418.28,691.73 414.14,691.87 406.88,692.69 400.51,694.05 395.02,695.96 390.42,698.42 386.71,701.41 388.12,702.83 391.63,700.01 396.02,697.70 401.27,695.91 407.40,694.63 414.41,693.86"/>
    </edge>
    <edge id=":1001_c2" function="crossing" crossingEdges="-1470 1470">
        <lane id=":1001_c2_0" index="0" allow="pedestrian" speed="2.78" length="12.80" width="4.00" shape="398.59,710.47 389.53,701.41" outlineShape="397.17,711.88 388.12,702.83 389.84,698.89 386.71,701.41 388.12,702.83 390.95,700.00 400.00,709.05 400.72,711.91 399.99,711.56 398.35,711.33"/>
    </edge>
    <edge id=":1001_w0" function="walkingarea">
        <lane id=":1001_w0_0" index="0" allow="pedestrian" speed="2.78" length="10.51" width="4.00" shape="397.17,711.88 398.59,713.29 409.81,721.69 411.23,720.28 407.72,716.93 404.68,714.36 402.10,712.57 399.99,711.56 398.35,711.33"/>
    </edge>
    <edge id=":1001_w1" function="walkingarea">
        <lane id=":1001_w1_0" index="0" allow="pedestrian" speed="2.78" length="3.32" width="4.00" shape="420.28,711.23 421.69,709.81 422.28,708.40 422.28,706.40 420.33,706.53 419.02,706.94 418.37,707.61 418.36,708.55 418.99,709.75"/>
    </edge>
    <edge id=":1001_w2" function="walkingarea">
        <lane id=":1001_w2_0" index="0" allow="pedestrian" speed="2.78" length="23.37" width="4.00" shape="422.28,693.60 422.28,691.60 414.14,691.87 406.88,692.69 400.51,694.05 395.02,695.96 390.42,698.42 386.71,701.41 388.12,702.83 391.63,700.01 396.02,697.70 401.27,695.91 407.40,694.63 414.41,693.86"/>
    </edge>
    <edge id=":1003_0" function="internal">
        <lane id=":1003_0_0" index="0" speed="6.49" length="14.35" shape="598.40,607.73 598.91,603.17 600.45,601.08 603.01,601.47 606.59,604.33"/>
    </edge>
    <edge id=":1003_1" function="internal">
        <lane id=":1003_1_0" index="0" speed="4.12" length="4.78" shape="604.33,606.59 603.14,605.64 602.28,605.51 601.77,606.21 601.60,607.73"/>
    </edge>
    <edge id=":1003_w0" function="walkingarea">
        <lane id=":1003_w0_0" index="0" allow="pedestrian" speed="2.78" length="5.05" width="6.40" shape="596.80,607.73 603.20,607.73 607.73,603.20 604.39,600.29 601.66,598.85 599.53,598.87 598.01,600.36 597.10,603.31"/>
    </edge>
    <edge id=":1024_0" function="internal">
        <lane id=":1024_0_0" index="0" disallow="pedestrian" speed="6.51" length="9.03" shape="495.20,1210.40 494.85,1207.95 493.80,1206.20 492.05,1205.15 489.60,1204.80"/>
    </edge>
    <edge id=":1024_1" function="internal">
        <lane id=":1024_1_0" index="0" disallow="pedestrian" speed="13.89" length="20.80" shape="495.20,1210.40 495.20,1189.60"/>
        <lane id=":1024_1_1" index="1" disallow="pedestrian" speed="13.89" length="20.80" shape="498.40,1210.40 498.40,1189.60"/>
    </edge>
    <edge id=":1024_3" function="internal">
        <lane id=":1024_3_0" index="0" disallow="pedestrian" speed="9.26" length="19.35" shape="498.40,1210.40 499.15,1205.15 501.40,1201.40 505.15,1199.15 510.40,1198.40"/>
    </edge>
    <edge id=":1024_4" function="internal">
        <lane id=":1024_4_0" index="0" disallow="pedestrian" speed="3.65" length="4.67" shape="498.40,1210.40 499.20,1209.20 500.00,1208.80 500.80,1209.20 501.60,1210.40"/>
    </edge>
    <edge id=":1024_5" function="internal">
        <lane id=":1024_5_0" index="0" disallow="pedestrian" speed="6.51" length="9.03" shape="510.40,1204.80 507.95,1205.15 506.20,1206.20 505.15,1207.95 504.80,1210.40"/>
    </edge>
    <edge id=":1024_6" function="internal">
        <lane id=":1024_6_0" index="0" disallow="pedestrian" speed="13.89" length="20.80" shape="510.40,1204.80 489.60,1204.80"/>
        <lane id=":1024_6_1" index="1" disallow="pedestrian" speed="13.89" length="20.80" shape="510.40,1201.60 489.60,1201.60"/>
    </edge>
    <edge id=":1024_8" function="internal">
        <lane id=":1024_8_0" index="0" disallow="pedestrian" speed="9.26" length="19.35" shape="510.40,1201.60 505.15,1200.85 501.40,1198.60 499.15,1194.85 498.40,1189.60"/>
    </edge>
    <edge id=":1024_9" function="internal">
        <lane id=":1024_9_0" index="0" disallow="pedestrian" speed="3.65" length="4.67" shape="510.40,1201.60 509.20,1200.80 508.80,1200.00 509.20,1199.20 510.40,1198.40"/>
    </edge>
    <edge id=":1024_10" function="internal">
        <lane id=":1024_10_0" index="0" disallow="pedestrian" speed="6.51" length="9.03" shape="504.80,1189.60 505.15,1192.05 506.20,1193.80 507.95,1194.85 510.40,1195.20"/>
    </edge>
    <edge id=":1024_11" function="internal">
        <lane id=":1024_11_0" index="0" disallow="pedestrian" speed="13.89" length="20.80" shape="504.80,1189.60 504.80,1210.40"/>
        <lane id=":1024_11_1" index="1" disallow="pedestrian" speed="13.89" length="20.80" shape="501.60,1189.60 501.60,1210.40"/>
    </edge>
    <edge id=":1024_13" function="internal">
        <lane id=":1024_13_0" index="0" disallow="pedestrian" speed="9.26" length="19.35" shape="501.60,1189.60 500.85,1194.85 498.60,1198.60 494.85,1200.85 489.60,1201.60"/>
    </edge>
    <edge id=":1024_14" function="internal">
        <lane id=":1024_14_0" index="0" disallow="pedestrian" speed="3.65" length="4.67" shape="501.60,1189.60 500.80,1190.80 500.00,1191.20 499.20,1190.80 498.40,1189.60"/>
    </edge>
    <edge id=":1024_15" function="internal">
        <lane id=":1024_15_0" index="0" disallow="pedestrian" speed="6.51" length="9.03" shape="489.60,1195.20 492.05,1194.85 493.80,1193.80 494.85,1192.05 495.20,1189.60"/>
    </edge>
    <edge id=":1024_16" function="internal">
        <lane id=":1024_16_0" index="0" disallow="pedestrian" speed="13.89" length="20.80" shape="489.60,1195.20 510.40,1195.20"/>
        <lane id=":1024_16_1" index="1" disallow="pedestrian" speed="13.89" length="20.80" shape="489.60,1198.40 510.40,1198.40"/>
    </edge>
    <edge id=":1024_18" function="internal">
        <lane id=":1024_18_0" index="0" disallow="pedestrian" speed="9.26" length="19.35" shape="489.60,1198.40 494.85,1199.15 498.60,1201.40 500.85,1205.15 501.60,1210.40"/>
    </edge>
    <edge id=":1024_19" function="internal">
        <lane id=":1024_19_0" index="0" disallow="pedestrian" speed="3.65" length="4.67" shape="489.60,1198.40 490.80,1199.20 491.20,1200.00 490.80,1200.80 489.60,1201.60"/>
    </edge>
    <edge id=":1024_c0" function="crossing" crossingEdges="1168 -1168">
        <lane id=":1024_c0_0" index="0" allow="pedestrian" speed="2.78" length="12.80" width="4.00" shape="506.40,1208.40 493.60,1208.40" outlineShape="506.40,1210.40 493.60,1210.40 489.60,1206.40 489.60,1208.40 491.60,1210.40 493.60,1210.40 489.60,1206.40 510.40,1206.40 509.18,1206.51 508.18,1206.84 507.40,1207.40 506.84,1208.18 506.51,1209.18"/>
    </edge>
    <edge id=":1024_c1" function="crossing" crossingEdges="-1025 1025">
        <lane id=":1024_c1_0" index="0" allow="pedestrian" speed="2.78" length="12.80" width="4.00" shape="508.40,1193.60 508.40,1206.40" outlineShape="510.40,1193.50 510.40,1206.50 509.18,1206.51 508.18,1206.84 507.40,1207.40 506.84,1208.18 506.73,1208.51 506.40,1206.40 506.40,1193.60 506.73,1191.49 506.84,1191.82 507.40,1192.60 508.18,1193.16 509.18,1193.49"/>
    </edge>
    <edge id=":1024_c2" function="crossing" crossingEdges="-1148 1148">
        <lane id=":1024_c2_0" index="0" allow="pedestrian" speed="2.78" length="12.80" width="4.00" shape="493.60,1191.60 506.40,1191.60" outlineShape="493.60,1189.60 506.40,1189.60 510.40,1193.60 510.40,1191.60 508.40,1189.60 506.40,1189.60 510.40,1193.60 489.60,1193.60 490.82,1193.49 491.82,1193.16 492.60,1192.60 493.16,1191.82 493.49,1190.82"/>
    </edge>
    <edge id=":1024_c3" function="crossing" crossingEdges="1154 -1154">
        <lane id=":1024_c3_0" index="0" allow="pedestrian" speed="2.78" length="12.80" width="4.00" shape="491.60,1206.40 491.60,1193.60" outlineShape="489.60,1206.50 489.60,1193.50 490.82,1193.49 491.82,1193.16 492.60,1192.60 493.16,1191.82 493.27,1191.49 493.60,1193.60 493.60,1206.40 493.27,1208.51 493.16,1208.18 492.60,1207.40 491.82,1206.84 490.82,1206.51"/>
    </edge>
    <edge id=":1024_w0" function="walkingarea">
        <lane id=":1024_w0_0" index="0" allow="pedestrian" speed="2.78" length="3.30" width="4.00" shape="489.60,1206.40 489.60,1208.40 491.60,1210.40 493.60,1210.40 493.49,1209.18 493.16,1208.18 492.60,1207.40 491.82,1206.84 490.82,1206.51"/>
    </edge>
    <edge id=":1024_w1" function="walkingarea">
        <lane id=":1024_w1_0" index="0" allow="pedestrian" speed="2.78" length="3.30" width="4.00" shape="506.40,1210.40 508.40,1210.40 510.40,1208.40 510.40,1206.40 509.18,1206.51 508.18,1206.84 507.40,1207.40 506.84,1208.18 506.51,1209.18"/>
    </edge>
    <edge id=":1024_w2" function="walkingarea">
        <lane id=":1024_w2_0" index="0" allow="pedestrian" speed="2.78" length="3.30" width="4.00" shape="510.40,1193.60 510.40,1191.60 508.40,1189.60 506.40,1189.60 506.51,1190.82 506.84,1191.82 507.40,1192.60 508.18,1193.16 509.18,1193.49"/>
    </edge>
    <edge id=":1024_w3" function="walkingarea">
        <lane id=":1024_w3_0" index="0" allow="pedestrian" speed="2.78" length="3.30" width="4.00" shape="493.60,1189.60 491.60,1189.60 489.60,1191.60 489.60,1193.60 490.82,1193.49 491.82,1193.16 492.60,1192.60 493.16,1191.82 493.49,1190.82"/>
    </edge>
    <edge id=":1033_0" function="internal">
        <lane id=":1033_0_0" index="0" speed="3.65" length="4.67" shape="800.00,698.40 801.20,699.20 801.60,700.00 801.20,700.80 800.00,701.60"/>
    </edge>
    <edge id=":108_0" function="internal">
        <lane id=":108_0_0" index="0" disallow="pedestrian" speed="9.32" length="19.62" shape="1095.20,1022.28 1094.85,1014.63 1093.80,1009.17 1092.05,1005.89 1089.60,1004.80"/>
    </edge>
    <edge id=":108_1" function="internal">
        <lane id=":108_1_0" index="0" disallow="pedestrian" speed="13.89" length="32.68" shape="1095.20,1022.28 1095.20,989.60"/>
        <lane id=":108_1_1" index="1" disallow="pedestrian" speed="13.89" length="32.68" shape="1098.40,1022.28 1098.40,989.60"/>
    </edge>
    <edge id=":108_3" function="internal">
        <lane id=":108_3_0" index="0" disallow="pedestrian" speed="8.59" length="2.95" shape="1098.40,1022.28 1099.13,1019.43"/>
    </edge>
    <edge id=":108_4" function="internal">
        <lane id=":108_4_0" index="0" disallow="pedestrian" speed="3.65" length="1.44" shape="1098.40,1022.28 1099.20,1021.08"/>
    </edge>
    <edge id=":108_20" function="internal">
        <lane id=":108_20_0" index="0" disallow="pedestrian" speed="8.59" length="23.48" shape="1099.13,1019.43 1100.18,1015.29 1104.70,1011.34 1110.68,1010.94 1116.89,1014.62"/>
    </edge>
    <edge id=":108_21" function="internal">
        <lane id=":108_21_0" index="0" disallow="pedestrian" speed="3.65" length="3.23" shape="1099.20,1021.08 1100.00,1020.68 1100.80,1021.08 1101.60,1022.28"/>
    </edge>
    <edge id=":108_5" function="internal">
        <lane id=":108_5_0" index="0" disallow="pedestrian" speed="6.26" length="13.24" shape="1112.36,1019.15 1109.05,1016.51 1106.69,1016.15 1105.27,1018.07 1104.80,1022.28"/>
    </edge>
    <edge id=":108_6" function="internal">
        <lane id=":108_6_0" index="0" disallow="pedestrian" speed="13.89" length="27.42" shape="1112.36,1019.15 1105.56,1012.87 1099.50,1008.39 1094.18,1005.70 1089.60,1004.80"/>
        <lane id=":108_6_1" index="1" disallow="pedestrian" speed="13.89" length="29.92" shape="1114.62,1016.89 1107.33,1010.20 1100.72,1005.42 1094.82,1002.56 1089.60,1001.60"/>
    </edge>
    <edge id=":108_8" function="internal">
        <lane id=":108_8_0" index="0" disallow="pedestrian" speed="13.89" length="32.41" shape="1114.62,1016.89 1107.53,1009.10 1102.46,1001.95 1099.41,995.45 1098.40,989.60"/>
    </edge>
    <edge id=":108_9" function="internal">
        <lane id=":108_9_0" index="0" disallow="pedestrian" speed="3.65" length="4.67" shape="1114.62,1016.89 1114.34,1015.47 1114.62,1014.62 1115.47,1014.34 1116.89,1014.62"/>
    </edge>
    <edge id=":108_10" function="internal">
        <lane id=":108_10_0" index="0" disallow="pedestrian" speed="13.89" length="27.42" shape="1104.80,989.60 1105.70,994.18 1108.39,999.50 1112.87,1005.56 1119.15,1012.36"/>
    </edge>
    <edge id=":108_11" function="internal">
        <lane id=":108_11_0" index="0" disallow="pedestrian" speed="13.89" length="32.68" shape="1104.80,989.60 1104.80,1022.28"/>