<?xml version="1.0" encoding="UTF-8"?>

<!-- generated on 2025-04-02 03:29:52 by Eclipse SUMO sumo Version 1.22.0
-->

<configuration xmlns:xsi="http://www.w3.org/2001/XMLSchema-instance" xsi:noNamespaceSchemaLocation="http://sumo.dlr.de/xsd/sumoConfiguration.xsd">

    <input>
        <net-file value="erlangen.net.xml"/>
        <route-files value="erlangen.rou.xml"/>
        ; <additional-files value="erlangen.poly.xml"/>
    </input>
</configuration>