<?xml version="1.0" encoding="UTF-8"?>

<!-- generated on 2025-05-05 20:03:24 by Eclipse SUMO netedit Version 1.22.0
<neteditConfiguration xmlns:xsi="http://www.w3.org/2001/XMLSchema-instance" xsi:noNamespaceSchemaLocation="http://sumo.dlr.de/xsd/neteditConfiguration.xsd">

    <input>
        <sumocfg-file value="D:\tuan3\testw8.sumocfg"/>
        <route-files value="D:\tuan3\testw8.rou.xml"/>
        <sumo-net-file value="D:\tuan3\testw8.net.xml"/>
    </input>

    <output>
        <output-file value="D:\tuan3\testw8.net.xml"/>
    </output>

    <processing>
        <geometry.min-radius.fix.railways value="false"/>
        <geometry.max-grade.fix value="false"/>
        <offset.disable-normalization value="true"/>
        <lefthand value="0"/>
    </processing>

    <junctions>
        <no-turnarounds value="true"/>
        <junctions.corner-detail value="5"/>
        <junctions.limit-turn-speed value="5.50"/>
        <rectangular-lane-cut value="0"/>
    </junctions>

    <pedestrian>
        <walkingareas value="0"/>
    </pedestrian>

</neteditConfiguration>
-->

<net version="1.20" junctionCornerDetail="5" limitTurnSpeed="5.50" xmlns:xsi="http://www.w3.org/2001/XMLSchema-instance" xsi:noNamespaceSchemaLocation="http://sumo.dlr.de/xsd/net_file.xsd">

    <location netOffset="1200.00,900.00" convBoundary="0.00,0.00,2000.00,2000.00" origBoundary="-1200.00,-900.00,800.00,1100.00" projParameter="!"/>

    <edge id=":1_0" function="internal">
        <lane id=":1_0_0" index="0" speed="6.51" length="9.03" shape="1195.20,910.40 1194.85,907.95 1193.80,906.20 1192.05,905.15 1189.60,904.80"/>
    </edge>
    <edge id=":1_1" function="internal">
        <lane id=":1_1_0" index="0" speed="13.89" length="20.80" shape="1195.20,910.40 1195.20,889.60"/>
        <lane id=":1_1_1" index="1" speed="13.89" length="20.80" shape="1198.40,910.40 1198.40,889.60"/>
    </edge>
    <edge id=":1_3" function="internal">
        <lane id=":1_3_0" index="0" speed="9.26" length="5.01" shape="1198.40,910.40 1199.11,905.44"/>
    </edge>
    <edge id=":1_4" function="internal">
        <lane id=":1_4_0" index="0" speed="3.65" length="1.44" shape="1198.40,910.40 1199.20,909.20"/>
    </edge>
    <edge id=":1_20" function="internal">
        <lane id=":1_20_0" index="0" speed="9.26" length="14.34" shape="1199.11,905.44 1199.15,905.15 1201.40,901.40 1205.15,899.15 1210.40,898.40"/>
    </edge>
    <edge id=":1_21" function="internal">
        <lane id=":1_21_0" index="0" speed="3.65" length="3.23" shape="1199.20,909.20 1200.00,908.80 1200.80,909.20 1201.60,910.40"/>
    </edge>
    <edge id=":1_5" function="internal">
        <lane id=":1_5_0" index="0" speed="6.51" length="9.03" shape="1210.40,904.80 1207.95,905.15 1206.20,906.20 1205.15,907.95 1204.80,910.40"/>
    </edge>
    <edge id=":1_6" function="internal">
        <lane id=":1_6_0" index="0" speed="13.89" length="20.80" shape="1210.40,904.80 1189.60,904.80"/>
        <lane id=":1_6_1" index="1" speed="13.89" length="20.80" shape="1210.40,901.60 1189.60,901.60"/>
    </edge>
    <edge id=":1_8" function="internal">
        <lane id=":1_8_0" index="0" speed="9.26" length="19.35" shape="1210.40,901.60 1205.15,900.85 1201.40,898.60 1199.15,894.85 1198.40,889.60"/>
    </edge>
    <edge id=":1_9" function="internal">
        <lane id=":1_9_0" index="0" speed="3.65" length="4.67" shape="1210.40,901.60 1209.20,900.80 1208.80,900.00 1209.20,899.20 1210.40,898.40"/>
    </edge>
    <edge id=":1_10" function="internal">
        <lane id=":1_10_0" index="0" speed="6.51" length="9.03" shape="1204.80,889.60 1205.15,892.05 1206.20,893.80 1207.95,894.85 1210.40,895.20"/>
    </edge>
    <edge id=":1_11" function="internal">
        <lane id=":1_11_0" index="0" speed="13.89" length="20.80" shape="1204.80,889.60 1204.80,910.40"/>
        <lane id=":1_11_1" index="1" speed="13.89" length="20.80" shape="1201.60,889.60 1201.60,910.40"/>
    </edge>
    <edge id=":1_13" function="internal">
        <lane id=":1_13_0" index="0" speed="9.26" length="5.01" shape="1201.60,889.60 1200.89,894.56"/>
    </edge>
    <edge id=":1_14" function="internal">
        <lane id=":1_14_0" index="0" speed="3.65" length="1.44" shape="1201.60,889.60 1200.80,890.80"/>
    </edge>
    <edge id=":1_22" function="internal">
        <lane id=":1_22_0" index="0" speed="9.26" length="14.34" shape="1200.89,894.56 1200.85,894.85 1198.60,898.60 1194.85,900.85 1189.60,901.60"/>
    </edge>
    <edge id=":1_23" function="internal">
        <lane id=":1_23_0" index="0" speed="3.65" length="3.23" shape="1200.80,890.80 1200.00,891.20 1199.20,890.80 1198.40,889.60"/>
    </edge>
    <edge id=":1_15" function="internal">
        <lane id=":1_15_0" index="0" speed="6.51" length="9.03" shape="1189.60,895.20 1192.05,894.85 1193.80,893.80 1194.85,892.05 1195.20,889.60"/>
    </edge>
    <edge id=":1_16" function="internal">
        <lane id=":1_16_0" index="0" speed="13.89" length="20.80" shape="1189.60,895.20 1210.40,895.20"/>
        <lane id=":1_16_1" index="1" speed="13.89" length="20.80" shape="1189.60,898.40 1210.40,898.40"/>
    </edge>
    <edge id=":1_18" function="internal">
        <lane id=":1_18_0" index="0" speed="9.26" length="19.35" shape="1189.60,898.40 1194.85,899.15 1198.60,901.40 1200.85,905.15 1201.60,910.40"/>
    </edge>
    <edge id=":1_19" function="internal">
        <lane id=":1_19_0" index="0" speed="3.65" length="4.67" shape="1189.60,898.40 1190.80,899.20 1191.20,900.00 1190.80,900.80 1189.60,901.60"/>
    </edge>
    <edge id=":10_0" function="internal">
        <lane id=":10_0_0" index="0" speed="6.51" length="9.03" shape="1095.20,910.40 1094.85,907.95 1093.80,906.20 1092.05,905.15 1089.60,904.80"/>
    </edge>
    <edge id=":10_1" function="internal">
        <lane id=":10_1_0" index="0" speed="9.26" length="19.35" shape="1098.40,910.40 1099.15,905.15 1101.40,901.40 1105.15,899.15 1110.40,898.40"/>
    </edge>
    <edge id=":10_2" function="internal">
        <lane id=":10_2_0" index="0" speed="3.65" length="4.67" shape="1098.40,910.40 1099.20,909.20 1100.00,908.80 1100.80,909.20 1101.60,910.40"/>
    </edge>
    <edge id=":10_3" function="internal">
        <lane id=":10_3_0" index="0" speed="6.51" length="9.03" shape="1110.40,904.80 1107.95,905.15 1106.20,906.20 1105.15,907.95 1104.80,910.40"/>
    </edge>
    <edge id=":10_4" function="internal">
        <lane id=":10_4_0" index="0" speed="13.89" length="20.80" shape="1110.40,904.80 1089.60,904.80"/>
        <lane id=":10_4_1" index="1" speed="13.89" length="20.80" shape="1110.40,901.60 1089.60,901.60"/>
    </edge>
    <edge id=":10_6" function="internal">
        <lane id=":10_6_0" index="0" speed="3.65" length="1.44" shape="1110.40,901.60 1109.20,900.80"/>
    </edge>
    <edge id=":10_11" function="internal">
        <lane id=":10_11_0" index="0" speed="3.65" length="3.23" shape="1109.20,900.80 1108.80,900.00 1109.20,899.20 1110.40,898.40"/>
    </edge>
    <edge id=":10_7" function="internal">
        <lane id=":10_7_0" index="0" speed="13.89" length="20.80" shape="1089.60,895.20 1110.40,895.20"/>
        <lane id=":10_7_1" index="1" speed="13.89" length="20.80" shape="1089.60,898.40 1110.40,898.40"/>
    </edge>
    <edge id=":10_9" function="internal">
        <lane id=":10_9_0" index="0" speed="9.26" length="5.01" shape="1089.60,898.40 1094.56,899.11"/>
    </edge>
    <edge id=":10_10" function="internal">
        <lane id=":10_10_0" index="0" speed="3.65" length="1.44" shape="1089.60,898.40 1090.80,899.20"/>
    </edge>
    <edge id=":10_12" function="internal">
        <lane id=":10_12_0" index="0" speed="9.26" length="14.34" shape="1094.56,899.11 1094.85,899.15 1098.60,901.40 1100.85,905.15 1101.60,910.40"/>
    </edge>
    <edge id=":10_13" function="internal">
        <lane id=":10_13_0" index="0" speed="3.65" length="3.23" shape="1090.80,899.20 1091.20,900.00 1090.80,900.80 1089.60,901.60"/>
    </edge>
    <edge id=":1001_0" function="internal">
        <lane id=":1001_0_0" index="0" speed="8.71" length="16.99" shape="410.36,717.15 405.58,712.86 401.60,710.37 398.42,709.66 396.04,710.75"/>
    </edge>
    <edge id=":1001_1" function="internal">
        <lane id=":1001_1_0" index="0" speed="8.14" length="23.57" shape="412.62,714.89 409.34,709.35 409.69,704.01 413.22,699.99 419.45,698.40"/>
    </edge>
    <edge id=":1001_2" function="internal">
        <lane id=":1001_2_0" index="0" speed="3.65" length="4.67" shape="412.62,714.89 412.34,713.47 412.62,712.62 413.47,712.34 414.89,712.62"/>
    </edge>
    <edge id=":1001_3" function="internal">
        <lane id=":1001_3_0" index="0" speed="5.47" length="9.74" shape="419.45,704.80 416.36,705.15 414.94,706.19 415.21,707.93 417.15,710.36"/>
    </edge>
    <edge id=":1001_4" function="internal">
        <lane id=":1001_4_0" index="0" speed="13.89" length="24.66" shape="419.45,704.80 411.44,705.17 404.87,706.29 399.73,708.15 396.04,710.75"/>
        <lane id=":1001_4_1" index="1" speed="13.89" length="27.16" shape="419.45,701.60 410.80,702.03 403.64,703.32 397.96,705.47 393.78,708.49"/>
    </edge>
    <edge id=":1001_6" function="internal">
        <lane id=":1001_6_0" index="0" speed="3.65" length="1.44" shape="419.45,701.60 418.25,700.80"/>
    </edge>
    <edge id=":1001_11" function="internal">
        <lane id=":1001_11_0" index="0" speed="3.65" length="3.23" shape="418.25,700.80 417.85,700.00 418.25,699.20 419.45,698.40"/>
    </edge>
    <edge id=":1001_7" function="internal">
        <lane id=":1001_7_0" index="0" speed="13.89" length="32.17" shape="389.25,703.96 394.42,700.13 401.18,697.39 409.52,695.75 419.45,695.20"/>
        <lane id=":1001_7_1" index="1" speed="13.89" length="29.67" shape="391.51,706.22 396.19,702.80 402.41,700.36 410.16,698.89 419.45,698.40"/>
    </edge>
    <edge id=":1001_9" function="internal">
        <lane id=":1001_9_0" index="0" speed="10.87" length="5.53" shape="391.51,706.22 396.16,703.44 396.28,703.44"/>
    </edge>
    <edge id=":1001_10" function="internal">
        <lane id=":1001_10_0" index="0" speed="3.65" length="1.44" shape="391.51,706.22 392.93,705.94"/>
    </edge>
    <edge id=":1001_12" function="internal">
        <lane id=":1001_12_0" index="0" speed="10.87" length="21.52" shape="396.28,703.44 401.60,703.58 407.84,706.64 414.89,712.62"/>
    </edge>
    <edge id=":1001_13" function="internal">
        <lane id=":1001_13_0" index="0" speed="3.65" length="3.23" shape="392.93,705.94 393.78,706.22 394.06,707.07 393.78,708.49"/>
    </edge>
    <edge id=":1003_0" function="internal">
        <lane id=":1003_0_0" index="0" speed="6.49" length="14.35" shape="598.40,607.73 598.91,603.17 600.45,601.08 603.01,601.47 606.59,604.33"/>
    </edge>
    <edge id=":1003_1" function="internal">
        <lane id=":1003_1_0" index="0" speed="4.12" length="4.78" shape="604.33,606.59 603.14,605.64 602.28,605.51 601.77,606.21 601.60,607.73"/>
    </edge>
    <edge id=":1024_0" function="internal">
        <lane id=":1024_0_0" index="0" speed="6.51" length="9.03" shape="495.20,1210.40 494.85,1207.95 493.80,1206.20 492.05,1205.15 489.60,1204.80"/>
    </edge>
    <edge id=":1024_1" function="internal">
        <lane id=":1024_1_0" index="0" speed="13.89" length="20.80" shape="495.20,1210.40 495.20,1189.60"/>
        <lane id=":1024_1_1" index="1" speed="13.89" length="20.80" shape="498.40,1210.40 498.40,1189.60"/>
    </edge>
    <edge id=":1024_3" function="internal">
        <lane id=":1024_3_0" index="0" speed="9.26" length="5.01" shape="498.40,1210.40 499.11,1205.44"/>
    </edge>
    <edge id=":1024_4" function="internal">
        <lane id=":1024_4_0" index="0" speed="3.65" length="1.44" shape="498.40,1210.40 499.20,1209.20"/>
    </edge>
    <edge id=":1024_20" function="internal">
        <lane id=":1024_20_0" index="0" speed="9.26" length="14.34" shape="499.11,1205.44 499.15,1205.15 501.40,1201.40 505.15,1199.15 510.40,1198.40"/>
    </edge>
    <edge id=":1024_21" function="internal">
        <lane id=":1024_21_0" index="0" speed="3.65" length="3.23" shape="499.20,1209.20 500.00,1208.80 500.80,1209.20 501.60,1210.40"/>
    </edge>
    <edge id=":1024_5" function="internal">
        <lane id=":1024_5_0" index="0" speed="6.51" length="9.03" shape="510.40,1204.80 507.95,1205.15 506.20,1206.20 505.15,1207.95 504.80,1210.40"/>
    </edge>
    <edge id=":1024_6" function="internal">
        <lane id=":1024_6_0" index="0" speed="13.89" length="20.80" shape="510.40,1204.80 489.60,1204.80"/>
        <lane id=":1024_6_1" index="1" speed="13.89" length="20.80" shape="510.40,1201.60 489.60,1201.60"/>
    </edge>
    <edge id=":1024_8" function="internal">
        <lane id=":1024_8_0" index="0" speed="9.26" length="19.35" shape="510.40,1201.60 505.15,1200.85 501.40,1198.60 499.15,1194.85 498.40,1189.60"/>
    </edge>
    <edge id=":1024_9" function="internal">
        <lane id=":1024_9_0" index="0" speed="3.65" length="4.67" shape="510.40,1201.60 509.20,1200.80 508.80,1200.00 509.20,1199.20 510.40,1198.40"/>
    </edge>
    <edge id=":1024_10" function="internal">
        <lane id=":1024_10_0" index="0" speed="6.51" length="9.03" shape="504.80,1189.60 505.15,1192.05 506.20,1193.80 507.95,1194.85 510.40,1195.20"/>
    </edge>
    <edge id=":1024_11" function="internal">
        <lane id=":1024_11_0" index="0" speed="13.89" length="20.80" shape="504.80,1189.60 504.80,1210.40"/>
        <lane id=":1024_11_1" index="1" speed="13.89" length="20.80" shape="501.60,1189.60 501.60,1210.40"/>
    </edge>
    <edge id=":1024_13" function="internal">
        <lane id=":1024_13_0" index="0" speed="9.26" length="5.01" shape="501.60,1189.60 500.89,1194.56"/>
    </edge>
    <edge id=":1024_14" function="internal">
        <lane id=":1024_14_0" index="0" speed="3.65" length="1.44" shape="501.60,1189.60 500.80,1190.80"/>
    </edge>
    <edge id=":1024_22" function="internal">
        <lane id=":1024_22_0" index="0" speed="9.26" length="14.34" shape="500.89,1194.56 500.85,1194.85 498.60,1198.60 494.85,1200.85 489.60,1201.60"/>
    </edge>
    <edge id=":1024_23" function="internal">
        <lane id=":1024_23_0" index="0" speed="3.65" length="3.23" shape="500.80,1190.80 500.00,1191.20 499.20,1190.80 498.40,1189.60"/>
    </edge>
    <edge id=":1024_15" function="internal">
        <lane id=":1024_15_0" index="0" speed="6.51" length="9.03" shape="489.60,1195.20 492.05,1194.85 493.80,1193.80 494.85,1192.05 495.20,1189.60"/>
    </edge>
    <edge id=":1024_16" function="internal">
        <lane id=":1024_16_0" index="0" speed="13.89" length="20.80" shape="489.60,1195.20 510.40,1195.20"/>
        <lane id=":1024_16_1" index="1" speed="13.89" length="20.80" shape="489.60,1198.40 510.40,1198.40"/>
    </edge>
    <edge id=":1024_18" function="internal">
        <lane id=":1024_18_0" index="0" speed="9.26" length="19.35" shape="489.60,1198.40 494.85,1199.15 498.60,1201.40 500.85,1205.15 501.60,1210.40"/>
    </edge>
    <edge id=":1024_19" function="internal">
        <lane id=":1024_19_0" index="0" speed="3.65" length="4.67" shape="489.60,1198.40 490.80,1199.20 491.20,1200.00 490.80,1200.80 489.60,1201.60"/>
    </edge>
    <edge id=":1033_0" function="internal">
        <lane id=":1033_0_0" index="0" speed="3.65" length="4.67" shape="800.00,698.40 801.20,699.20 801.60,700.00 801.20,700.80 800.00,701.60"/>
    </edge>
    <edge id=":108_0" function="internal">
        <lane id=":108_0_0" index="0" speed="8.71" length="16.99" shape="1095.20,1019.45 1094.85,1013.04 1093.80,1008.46 1092.05,1005.72 1089.60,1004.80"/>
    </edge>
    <edge id=":108_1" function="internal">
        <lane id=":108_1_0" index="0" speed="13.89" length="29.85" shape="1095.20,1019.45 1095.20,989.60"/>
        <lane id=":108_1_1" index="1" speed="13.89" length="29.85" shape="1098.40,1019.45 1098.40,989.60"/>
    </edge>
    <edge id=":108_3" function="internal">
        <lane id=":108_3_0" index="0" speed="8.14" length="2.95" shape="1098.40,1019.45 1099.13,1016.60"/>
    </edge>
    <edge id=":108_4" function="internal">
        <lane id=":108_4_0" index="0" speed="3.65" length="1.44" shape="1098.40,1019.45 1099.20,1018.25"/>
    </edge>
    <edge id=":108_20" function="internal">
        <lane id=":108_20_0" index="0" speed="8.14" length="20.62" shape="1099.13,1016.60 1099.99,1013.22 1104.01,1009.69 1109.35,1009.34 1114.89,1012.62"/>
    </edge>
    <edge id=":108_21" function="internal">
        <lane id=":108_21_0" index="0" speed="3.65" length="3.23" shape="1099.20,1018.25 1100.00,1017.85 1100.80,1018.25 1101.60,1019.45"/>
    </edge>
    <edge id=":108_5" function="internal">
        <lane id=":108_5_0" index="0" speed="5.47" length="9.74" shape="1110.36,1017.15 1107.93,1015.21 1106.19,1014.94 1105.15,1016.36 1104.80,1019.45"/>
    </edge>
    <edge id=":108_6" function="internal">
        <lane id=":108_6_0" index="0" speed="13.89" length="24.66" shape="1110.36,1017.15 1104.43,1011.75 1099.00,1007.89 1094.05,1005.57 1089.60,1004.80"/>
        <lane id=":108_6_1" index="1" speed="13.89" length="27.16" shape="1112.62,1014.89 1106.20,1009.07 1100.22,1004.92 1094.69,1002.43 1089.60,1001.60"/>
    </edge>
    <edge id=":108_8" function="internal">
        <lane id=":108_8_0" index="0" speed="13.89" length="29.67" shape="1112.62,1014.89 1106.40,1007.97 1101.96,1001.45 1099.29,995.33 1098.40,989.60"/>
    </edge>
    <edge id=":108_9" function="internal">
        <lane id=":108_9_0" index="0" speed="3.65" length="4.67" shape="1112.62,1014.89 1112.34,1013.47 1112.62,1012.62 1113.47,1012.34 1114.89,1012.62"/>
    </edge>
    <edge id=":108_10" function="internal">
        <lane id=":108_10_0" index="0" speed="13.89" length="24.99" shape="1104.80,989.60 1105.74,996.07 1108.32,1001.08 1112.24,1005.54 1117.15,1010.36"/>
    </edge>
    <edge id=":108_11" function="internal">
        <lane id=":108_11_0" index="0" speed="13.89" length="29.85" shape="1104.80,989.60 1104.80,1019.45"/>
        <lane id=":108_11_1" index="1" speed="13.89" length="29.85" shape="1101.60,989.60 1101.60,1019.45"/>
    </edge>
    <edge id=":108_13" function="internal">
        <lane id=":108_13_0" index="0" speed="9.26" length="5.01" shape="1101.60,989.60 1100.89,994.56"/>
    </edge>
    <edge id=":108_14" function="internal">
        <lane id=":108_14_0" index="0" speed="3.65" length="1.44" shape="1101.60,989.60 1100.80,990.80"/>
    </edge>
    <edge id=":108_22" function="internal">
        <lane id=":108_22_0" index="0" speed="9.26" length="14.34" shape="1100.89,994.56 1100.85,994.85 1098.60,998.60 1094.85,1000.85 1089.60,1001.60"/>
    </edge>
    <edge id=":108_23" function="internal">
        <lane id=":108_23_0" index="0" speed="3.65" length="3.23" shape="1100.80,990.80 1100.00,991.20 1099.20,990.80 1098.40,989.60"/>
    </edge>
    <edge id=":108_15" function="internal">
        <lane id=":108_15_0" index="0" speed="6.51" length="9.03" shape="1089.60,995.20 1092.05,994.85 1093.80,993.80 1094.85,992.05 1095.20,989.60"/>
    </edge>
    <edge id=":108_16" function="internal">
        <lane id=":108_16_0" index="0" speed="13.89" length="32.17" shape="1089.60,995.20 1095.97,996.15 1102.68,998.99 1109.74,1003.73 1117.15,1010.36"/>
        <lane id=":108_16_1" index="1" speed="13.89" length="29.67" shape="1089.60,998.40 1095.33,999.29 1101.45,1001.96 1107.97,1006.40 1114.89,1012.62"/>
    </edge>
    <edge id=":108_18" function="internal">
        <lane id=":108_18_0" index="0" speed="10.87" length="27.05" shape="1089.60,998.40 1094.85,999.72 1098.60,1003.66 1100.85,1010.24 1101.60,1019.45"/>
    </edge>
    <edge id=":108_19" function="internal">
        <lane id=":108_19_0" index="0" speed="3.65" length="4.67" shape="1089.60,998.40 1090.80,999.20 1091.20,1000.00 1090.80,1000.80 1089.60,1001.60"/>
    </edge>
    <edge id=":1149_0" function="internal">
        <lane id=":1149_0_0" index="0" speed="8.71" length="16.99" shape="495.20,810.40 494.28,807.95 491.54,806.20 486.96,805.15 480.55,804.80"/>
    </edge>
    <edge id=":1149_1" function="internal">
        <lane id=":1149_1_0" index="0" speed="13.89" length="24.66" shape="495.20,810.40 494.43,805.95 492.11,801.00 488.25,795.57 482.85,789.64"/>
        <lane id=":1149_1_1" index="1" speed="13.89" length="27.16" shape="498.40,810.40 497.57,805.31 495.08,799.78 490.93,793.80 485.11,787.38"/>
    </edge>
    <edge id=":1149_3" function="internal">
        <lane id=":1149_3_0" index="0" speed="3.65" length="1.29" shape="498.40,810.40 499.12,809.32"/>
    </edge>
    <edge id=":1149_11" function="internal">
        <lane id=":1149_11_0" index="0" speed="3.65" length="3.38" shape="499.12,809.32 499.20,809.20 500.00,808.80 500.80,809.20 501.60,810.40"/>
    </edge>
    <edge id=":1149_4" function="internal">
        <lane id=":1149_4_0" index="0" speed="13.89" length="32.17" shape="489.64,782.85 496.27,790.26 501.01,797.32 503.85,804.03 504.80,810.40"/>
        <lane id=":1149_4_1" index="1" speed="13.89" length="29.67" shape="487.38,785.11 493.60,792.03 498.04,798.55 500.71,804.67 501.60,810.40"/>
    </edge>
    <edge id=":1149_6" function="internal">
        <lane id=":1149_6_0" index="0" speed="8.14" length="3.59" shape="487.38,785.11 489.21,788.21"/>
    </edge>
    <edge id=":1149_7" function="internal">
        <lane id=":1149_7_0" index="0" speed="3.65" length="1.44" shape="487.38,785.11 487.66,786.53"/>
    </edge>
    <edge id=":1149_12" function="internal">
        <lane id=":1149_12_0" index="0" speed="8.14" length="19.97" shape="489.21,788.21 490.66,790.65 490.31,795.99 486.78,800.01 480.55,801.60"/>
    </edge>
    <edge id=":1149_13" function="internal">
        <lane id=":1149_13_0" index="0" speed="3.65" length="3.23" shape="487.66,786.53 487.38,787.38 486.53,787.66 485.11,787.38"/>
    </edge>
    <edge id=":1149_8" function="internal">
        <lane id=":1149_8_0" index="0" speed="5.47" length="9.74" shape="480.55,795.20 483.64,794.85 485.06,793.81 484.79,792.07 482.85,789.64"/>
    </edge>
    <edge id=":1149_9" function="internal">
        <lane id=":1149_9_0" index="0" speed="10.87" length="27.05" shape="480.55,798.40 489.76,799.15 496.34,801.40 500.28,805.15 501.60,810.40"/>
    </edge>
    <edge id=":1149_10" function="internal">
        <lane id=":1149_10_0" index="0" speed="3.65" length="4.67" shape="480.55,798.40 481.75,799.20 482.15,800.00 481.75,800.80 480.55,801.60"/>
    </edge>
    <edge id=":1153_0" function="internal">
        <lane id=":1153_0_0" index="0" speed="13.89" length="29.85" shape="395.20,1219.45 395.20,1189.60"/>
        <lane id=":1153_0_1" index="1" speed="13.89" length="29.85" shape="398.40,1219.45 398.40,1189.60"/>
    </edge>
    <edge id=":1153_2" function="internal">
        <lane id=":1153_2_0" index="0" speed="12.13" length="5.01" shape="398.40,1219.45 399.11,1214.49"/>
    </edge>
    <edge id=":1153_3" function="internal">
        <lane id=":1153_3_0" index="0" speed="8.14" length="2.95" shape="398.40,1219.45 399.13,1216.60"/>
    </edge>
    <edge id=":1153_4" function="internal">
        <lane id=":1153_4_0" index="0" speed="3.65" length="1.44" shape="398.40,1219.45 399.20,1218.25"/>
    </edge>
    <edge id=":1153_20" function="internal">
        <lane id=":1153_20_0" index="0" speed="12.13" length="28.94" shape="399.11,1214.49 399.72,1210.24 403.66,1203.66 410.24,1199.72 419.45,1198.40"/>
    </edge>
    <edge id=":1153_21" function="internal">
        <lane id=":1153_21_0" index="0" speed="8.14" length="20.62" shape="399.13,1216.60 399.99,1213.22 404.01,1209.69 409.35,1209.34 414.89,1212.62"/>
    </edge>
    <edge id=":1153_22" function="internal">
        <lane id=":1153_22_0" index="0" speed="3.65" length="3.23" shape="399.20,1218.25 400.00,1217.85 400.80,1218.25 401.60,1219.45"/>
    </edge>
    <edge id=":1153_5" function="internal">
        <lane id=":1153_5_0" index="0" speed="5.47" length="9.74" shape="410.36,1217.15 407.93,1215.21 406.19,1214.94 405.15,1216.36 404.80,1219.45"/>
    </edge>
    <edge id=":1153_6" function="internal">
        <lane id=":1153_6_0" index="0" speed="13.89" length="32.17" shape="410.36,1217.15 403.73,1209.74 398.99,1202.68 396.15,1195.97 395.20,1189.60"/>
        <lane id=":1153_6_1" index="1" speed="13.89" length="29.67" shape="412.62,1214.89 406.40,1207.97 401.96,1201.45 399.29,1195.33 398.40,1189.60"/>
    </edge>
    <edge id=":1153_8" function="internal">
        <lane id=":1153_8_0" index="0" speed="8.14" length="23.57" shape="412.62,1214.89 409.34,1209.35 409.69,1204.01 413.22,1199.99 419.45,1198.40"/>
    </edge>
    <edge id=":1153_9" function="internal">
        <lane id=":1153_9_0" index="0" speed="3.65" length="4.67" shape="412.62,1214.89 412.34,1213.47 412.62,1212.62 413.47,1212.34 414.89,1212.62"/>
    </edge>
    <edge id=":1153_10" function="internal">
        <lane id=":1153_10_0" index="0" speed="5.47" length="9.74" shape="419.45,1204.80 416.36,1205.15 414.94,1206.19 415.21,1207.93 417.15,1210.36"/>
    </edge>
    <edge id=":1153_11" function="internal">
        <lane id=":1153_11_0" index="0" speed="10.18" length="23.63" shape="419.45,1204.80 413.04,1205.72 408.46,1208.46 405.72,1213.04 404.80,1219.45"/>
        <lane id=":1153_11_1" index="1" speed="11.20" length="28.79" shape="419.45,1201.60 411.64,1202.72 406.06,1206.06 402.72,1211.64 401.60,1219.45"/>
    </edge>
    <edge id=":1153_13" function="internal">
        <lane id=":1153_13_0" index="0" speed="10.87" length="27.05" shape="419.45,1201.60 410.24,1200.85 403.66,1198.60 399.72,1194.85 398.40,1189.60"/>
    </edge>
    <edge id=":1153_14" function="internal">
        <lane id=":1153_14_0" index="0" speed="3.65" length="4.67" shape="419.45,1201.60 418.25,1200.80 417.85,1200.00 418.25,1199.20 419.45,1198.40"/>
    </edge>
    <edge id=":1153_15" function="internal">
        <lane id=":1153_15_0" index="0" speed="8.71" length="16.99" shape="404.80,1189.60 405.72,1192.05 408.46,1193.80 413.04,1194.85 419.45,1195.20"/>
    </edge>
    <edge id=":1153_16" function="internal">
        <lane id=":1153_16_0" index="0" speed="13.89" length="25.79" shape="404.80,1189.60 405.43,1195.89 407.32,1201.82 410.47,1207.40 414.89,1212.62"/>
    </edge>
    <edge id=":1153_17" function="internal">
        <lane id=":1153_17_0" index="0" speed="13.89" length="29.85" shape="404.80,1189.60 404.80,1219.45"/>
        <lane id=":1153_17_1" index="1" speed="13.89" length="29.85" shape="401.60,1189.60 401.60,1219.45"/>
    </edge>
    <edge id=":1153_19" function="internal">
        <lane id=":1153_19_0" index="0" speed="3.65" length="1.44" shape="401.60,1189.60 400.80,1190.80"/>
    </edge>
    <edge id=":1153_23" function="internal">
        <lane id=":1153_23_0" index="0" speed="3.65" length="3.23" shape="400.80,1190.80 400.00,1191.20 399.20,1190.80 398.40,1189.60"/>
    </edge>
    <edge id=":1167_0" function="internal">
        <lane id=":1167_0_0" index="0" speed="5.47" length="9.74" shape="495.20,1319.45 494.85,1316.36 493.81,1314.94 492.07,1315.21 489.64,1317.15"/>
    </edge>
    <edge id=":1167_1" function="internal">
        <lane id=":1167_1_0" index="0" speed="13.89" length="34.44" shape="495.20,1319.45 494.57,1309.20 492.68,1300.44 489.53,1293.16 485.11,1287.38"/>
    </edge>
    <edge id=":1167_2" function="internal">
        <lane id=":1167_2_0" index="0" speed="13.89" length="38.90" shape="495.20,1319.45 495.20,1280.55"/>
        <lane id=":1167_2_1" index="1" speed="13.89" length="38.90" shape="498.40,1319.45 498.40,1280.55"/>
    </edge>
    <edge id=":1167_4" function="internal">
        <lane id=":1167_4_0" index="0" speed="3.65" length="1.44" shape="498.40,1319.45 499.20,1318.25"/>
    </edge>
    <edge id=":1167_20" function="internal">
        <lane id=":1167_20_0" index="0" speed="3.65" length="3.23" shape="499.20,1318.25 500.00,1317.85 500.80,1318.25 501.60,1319.45"/>
    </edge>
    <edge id=":1167_5" function="internal">
        <lane id=":1167_5_0" index="0" speed="13.89" length="38.90" shape="504.80,1280.55 504.80,1319.45"/>
        <lane id=":1167_5_1" index="1" speed="13.89" length="38.90" shape="501.60,1280.55 501.60,1319.45"/>
    </edge>
    <edge id=":1167_7" function="internal">
        <lane id=":1167_7_0" index="0" speed="13.89" length="7.70" shape="501.60,1280.55 500.90,1288.22"/>
    </edge>
    <edge id=":1167_8" function="internal">
        <lane id=":1167_8_0" index="0" speed="8.14" length="2.95" shape="501.60,1280.55 500.87,1283.40"/>
    </edge>
    <edge id=":1167_9" function="internal">
        <lane id=":1167_9_0" index="0" speed="3.65" length="1.44" shape="501.60,1280.55 500.80,1281.75"/>
    </edge>
    <edge id=":1167_21" function="internal">
        <lane id=":1167_21_0" index="0" speed="13.89" length="30.44" shape="500.90,1288.22 500.71,1290.24 498.04,1299.19 493.60,1307.41 487.38,1314.89"/>
    </edge>
    <edge id=":1167_22" function="internal">
        <lane id=":1167_22_0" index="0" speed="8.14" length="20.62" shape="500.87,1283.40 500.01,1286.78 495.99,1290.31 490.65,1290.66 485.11,1287.38"/>
    </edge>
    <edge id=":1167_23" function="internal">
        <lane id=":1167_23_0" index="0" speed="3.65" length="3.23" shape="500.80,1281.75 500.00,1282.15 499.20,1281.75 498.40,1280.55"/>
    </edge>
    <edge id=":1167_10" function="internal">
        <lane id=":1167_10_0" index="0" speed="5.47" length="9.74" shape="489.64,1282.85 492.07,1284.79 493.81,1285.06 494.85,1283.64 495.20,1280.55"/>
    </edge>
    <edge id=":1167_11" function="internal">
        <lane id=":1167_11_0" index="0" speed="13.89" length="40.65" shape="489.64,1282.85 496.27,1290.82 501.01,1299.58 503.85,1309.12 504.80,1319.45"/>
        <lane id=":1167_11_1" index="1" speed="13.89" length="38.14" shape="487.38,1285.11 493.60,1292.59 498.04,1300.81 500.71,1309.76 501.60,1319.45"/>
    </edge>
    <edge id=":1167_13" function="internal">
        <lane id=":1167_13_0" index="0" speed="12.13" length="33.95" shape="487.38,1285.11 492.96,1292.56 494.82,1300.00 492.96,1307.44 487.38,1314.89"/>
    </edge>